/*--------------------------------*- C++ -*----------------------------------*\
| =========                 |                                                 |
| \\      /  F ield         | OpenFOAM: The Open Source CFD Toolbox           |
|  \\    /   O peration     | Version:  2212                                  |
|   \\  /    A nd           | Website:  www.openfoam.com                      |
|    \\/     M anipulation  |                                                 |
\*---------------------------------------------------------------------------*/
FoamFile
{
    version     2.0;
    format      ascii;
    arch        "LSB;label=32;scalar=64";
    class       polyBoundaryMesh;
    location    "constant/floor/polyMesh";
    object      boundary;
}
// * * * * * * * * * * * * * * * * * * * * * * * * * * * * * * * * * * * * * //

8
(
    inlet
    {
        type            patch;
        nFaces          40;
        startFace       46727;
    }
    outlet
    {
        type            patch;
        nFaces          40;
        startFace       46767;
    }
    ground
    {
        type            wall;
        inGroups        1(wall);
        nFaces          5562;
        startFace       46807;
    }
    left
    {
        type            patch;
        nFaces          60;
        startFace       52369;
    }
    right
    {
        type            patch;
        nFaces          60;
        startFace       52429;
    }
    floor_to_atrium
    {
        type            mappedWall;
        inGroups        1(wall);
        nFaces          877;
        startFace       52489;
        sampleMode      nearestPatchFace;
        sampleRegion    atrium;
        samplePatch     atrium_to_floor;
    }
    floor_to_domain1
    {
        type            mappedWall;
        inGroups        1(wall);
        nFaces          3330;
        startFace       53366;
        sampleMode      nearestPatchFace;
        sampleRegion    domain1;
        samplePatch     domain1_to_floor;
    }
    floor_to_building
    {
        type            mappedWall;
        inGroups        1(wall);
        nFaces          2405;
        startFace       56696;
        sampleMode      nearestPatchFace;
        sampleRegion    building;
        samplePatch     building_to_floor;
    }
)

// ************************************************************************* //
