/*--------------------------------*- C++ -*----------------------------------*\
| =========                 |                                                 |
| \\      /  F ield         | OpenFOAM: The Open Source CFD Toolbox           |
|  \\    /   O peration     | Version:  2212                                  |
|   \\  /    A nd           | Website:  www.openfoam.com                      |
|    \\/     M anipulation  |                                                 |
\*---------------------------------------------------------------------------*/
FoamFile
{
    version     2.0;
    format      ascii;
    arch        "LSB;label=32;scalar=64";
    class       polyBoundaryMesh;
    location    "constant/floor/polyMesh";
    object      boundary;
}
// * * * * * * * * * * * * * * * * * * * * * * * * * * * * * * * * * * * * * //

8
(
    inlet
    {
        type            patch;
        nFaces          49;
        startFace       46889;
    }
    outlet
    {
        type            patch;
        nFaces          40;
        startFace       46938;
    }
    ground
    {
        type            wall;
        inGroups        1(wall);
        nFaces          5589;
        startFace       46978;
    }
    left
    {
        type            patch;
        nFaces          69;
        startFace       52567;
    }
    right
    {
        type            patch;
        nFaces          60;
        startFace       52636;
    }
    floor_to_atrium
    {
        type            mappedWall;
        inGroups        1(wall);
        nFaces          877;
        startFace       52696;
        sampleMode      nearestPatchFace;
        sampleRegion    atrium;
        samplePatch     atrium_to_floor;
    }
    floor_to_domain1
    {
        type            mappedWall;
        inGroups        1(wall);
        nFaces          3348;
        startFace       53573;
        sampleMode      nearestPatchFace;
        sampleRegion    domain1;
        samplePatch     domain1_to_floor;
    }
    floor_to_building
    {
        type            mappedWall;
        inGroups        1(wall);
        nFaces          2405;
        startFace       56921;
        sampleMode      nearestPatchFace;
        sampleRegion    building;
        samplePatch     building_to_floor;
    }
)

// ************************************************************************* //
