/*--------------------------------*- C++ -*----------------------------------*\
| =========                 |                                                 |
| \\      /  F ield         | OpenFOAM: The Open Source CFD Toolbox           |
|  \\    /   O peration     | Version:  2212                                  |
|   \\  /    A nd           | Website:  www.openfoam.com                      |
|    \\/     M anipulation  |                                                 |
\*---------------------------------------------------------------------------*/
FoamFile
{
    version     2.0;
    format      ascii;
    arch        "LSB;label=32;scalar=64";
    class       featureEdgeMesh;
    location    "constant/triSurface";
    object      surround.eMesh;
}
// * * * * * * * * * * * * * * * * * * * * * * * * * * * * * * * * * * * * * //


// points:

96
(
(243.1741 117.9381 5)
(243.1741 91.78165 5)
(243.1741 91.78165 59.5)
(243.1741 117.9381 59.5)
(270.6553 91.78165 5)
(270.6553 91.78165 59.5)
(270.6553 117.9381 5)
(270.6553 117.9381 59.5)
(293.4686 120.9522 5)
(293.4686 94.79575 5)
(293.4686 94.79575 59.5)
(293.4686 120.9522 59.5)
(320.9498 94.79575 5)
(320.9498 94.79575 59.5)
(320.9498 120.9522 5)
(320.9498 120.9522 59.5)
(207.5683 -61.72763 5)
(207.5683 -87.88411 5)
(207.5683 -87.88411 59.5)
(207.5683 -61.72763 59.5)
(259.4783 -87.88411 5)
(259.4783 -87.88411 59.5)
(259.4783 -61.72763 5)
(259.4783 -61.72763 59.5)
(207.2943 -21.44823 5)
(207.2943 -47.60471 5)
(207.2943 -47.60471 59.5)
(207.2943 -21.44823 59.5)
(259.2043 -47.60471 5)
(259.2043 -47.60471 59.5)
(259.2043 -21.44823 5)
(259.2043 -21.44823 59.5)
(276.5848 34.50204 5)
(276.5848 8.345561 5)
(276.5848 8.345561 59.5)
(276.5848 34.50204 59.5)
(304.0659 8.345561 5)
(304.0659 8.345561 59.5)
(304.0659 34.50204 5)
(304.0659 34.50204 59.5)
(206.956 34.03024 5)
(206.956 7.87376 5)
(206.956 7.87376 59.5)
(206.956 34.03024 59.5)
(258.866 7.87376 5)
(258.866 7.87376 59.5)
(258.866 34.03024 5)
(258.866 34.03024 59.5)
(206.84 82.52992 5)
(206.84 56.37344 5)
(206.84 56.37344 59.5)
(206.84 82.52992 59.5)
(234.3211 56.37344 5)
(234.3211 56.37344 59.5)
(234.3211 82.52992 5)
(234.3211 82.52992 59.5)
(161.6111 21.39719 5)
(161.6111 -34.61821 5)
(161.6111 -34.61821 36.80334)
(161.6111 21.39719 36.80334)
(182.2173 -34.61821 5)
(182.2173 -34.61821 36.80334)
(182.2173 21.39719 5)
(182.2173 21.39719 36.80334)
(102.7779 -34.45422 5)
(158.7933 -34.45422 5)
(158.7933 -34.45422 36.80334)
(102.7779 -34.45422 36.80334)
(158.7933 -13.84804 5)
(158.7933 -13.84804 36.80334)
(102.7779 -13.84804 5)
(102.7779 -13.84804 36.80334)
(29.69202 -35.28949 5)
(85.70743 -35.28949 5)
(85.70743 -35.28949 36.80334)
(29.69202 -35.28949 36.80334)
(85.70743 -14.68331 5)
(85.70743 -14.68331 36.80334)
(29.69202 -14.68331 5)
(29.69202 -14.68331 36.80334)
(29.69202 -71.52564 5)
(85.70743 -71.52564 5)
(85.70743 -71.52564 36.80334)
(29.69202 -71.52564 36.80334)
(85.70743 -50.91946 5)
(85.70743 -50.91946 36.80334)
(29.69202 -50.91946 5)
(29.69202 -50.91946 36.80334)
(30.2209 0.9606119 5)
(128.4036 0.9606119 5)
(128.4036 0.9606119 43.69632)
(30.2209 0.9606119 43.69632)
(128.4036 37.07874 5)
(128.4036 37.07874 43.69632)
(30.2209 37.07874 5)
(30.2209 37.07874 43.69632)
)


// edges:

144
(
(1 2)
(0 1)
(3 0)
(2 3)
(4 5)
(1 4)
(5 2)
(6 7)
(4 6)
(7 5)
(6 0)
(3 7)
(9 10)
(8 9)
(11 8)
(10 11)
(12 13)
(9 12)
(13 10)
(14 15)
(12 14)
(15 13)
(14 8)
(11 15)
(17 18)
(16 17)
(19 16)
(18 19)
(20 21)
(17 20)
(21 18)
(22 23)
(20 22)
(23 21)
(22 16)
(19 23)
(25 26)
(24 25)
(27 24)
(26 27)
(28 29)
(25 28)
(29 26)
(30 31)
(28 30)
(31 29)
(30 24)
(27 31)
(33 34)
(32 33)
(35 32)
(34 35)
(36 37)
(33 36)
(37 34)
(38 39)
(36 38)
(39 37)
(38 32)
(35 39)
(41 42)
(40 41)
(43 40)
(42 43)
(44 45)
(41 44)
(45 42)
(46 47)
(44 46)
(47 45)
(46 40)
(43 47)
(49 50)
(48 49)
(51 48)
(50 51)
(52 53)
(49 52)
(53 50)
(54 55)
(52 54)
(55 53)
(54 48)
(51 55)
(57 58)
(56 57)
(59 56)
(58 59)
(60 61)
(57 60)
(61 58)
(62 63)
(60 62)
(63 61)
(62 56)
(59 63)
(65 66)
(64 65)
(67 64)
(66 67)
(68 69)
(65 68)
(69 66)
(70 71)
(68 70)
(71 69)
(70 64)
(67 71)
(73 74)
(72 73)
(75 72)
(74 75)
(76 77)
(73 76)
(77 74)
(78 79)
(76 78)
(79 77)
(78 72)
(75 79)
(81 82)
(80 81)
(83 80)
(82 83)
(84 85)
(81 84)
(85 82)
(86 87)
(84 86)
(87 85)
(86 80)
(83 87)
(89 90)
(88 89)
(91 88)
(90 91)
(92 93)
(89 92)
(93 90)
(94 95)
(92 94)
(95 93)
(94 88)
(91 95)
)

// * * * * * * * * * * * * * * * * * * * * * * * * * * * * * * * * * * * * * //


// ************************************************************************* //
