/*--------------------------------*- C++ -*----------------------------------*\
| =========                 |                                                 |
| \\      /  F ield         | OpenFOAM: The Open Source CFD Toolbox           |
|  \\    /   O peration     | Version:  v1912                                 |
|   \\  /    A nd           | Website:  www.openfoam.com                      |
|    \\/     M anipulation  |                                                 |
\*---------------------------------------------------------------------------*/
FoamFile
{
    version     2.0;
    format      ascii;
    class       volScalarField;
    location    "0/air";
    object      k;
}
// * * * * * * * * * * * * * * * * * * * * * * * * * * * * * * * * * * * * * //

dimensions      [ 0 2 -2 0 0 0 0 ];

internalField   uniform 0.1;

boundaryField
{
    ".*"
    {
        type            kqRWallFunction;
        value           $internalField;
        inletValue      $internalField;
    }
	
	window_inlet
	{
        type            fixedValue;
        value           $internalField;
	}
	
	window_outlet
	{
	    type            inletOutlet;
        value           $internalField;
        inletValue      $internalField;
	}

	/*
		window_inlet
    {
		type            mappedField;
		sampleMode      nearestPatchFace;
		samplePatch 	window_inlet;
		sampleRegion    domain1;
		//offsetMode 		uniform;
		//offset  		(0 0 0);
		//interpolationScheme  cell;
        field           k;              // optional field name
        setAverage      no;             // apply an average value
        average         0;              // average to apply if setAverage
        value           uniform  0.1;		// place holder
		//inletValue      uniform  0.1;
		//Prt             0.85; 
    }
	*/
		glass
    {
        type            kqRWallFunction;
        value           $internalField;
        inletValue      $internalField;
    }
}


// ************************************************************************* //
