/*--------------------------------*- C++ -*----------------------------------*\
| =========                 |                                                 |
| \\      /  F ield         | OpenFOAM: The Open Source CFD Toolbox           |
|  \\    /   O peration     | Version:  2212                                  |
|   \\  /    A nd           | Website:  www.openfoam.com                      |
|    \\/     M anipulation  |                                                 |
\*---------------------------------------------------------------------------*/
FoamFile
{
    version     2.0;
    format      ascii;
    arch        "LSB;label=32;scalar=64";
    class       polyBoundaryMesh;
    location    "constant/polyMesh";
    object      boundary;
}
// * * * * * * * * * * * * * * * * * * * * * * * * * * * * * * * * * * * * * //

7
(
    inlet
    {
        type            patch;
        nFaces          1948;
        startFace       758415;
    }
    outlet
    {
        type            patch;
        nFaces          1600;
        startFace       760363;
    }
    ground
    {
        type            wall;
        inGroups        1(wall);
        nFaces          5589;
        startFace       761963;
    }
    left
    {
        type            patch;
        nFaces          2748;
        startFace       767552;
    }
    right
    {
        type            patch;
        nFaces          2400;
        startFace       770300;
    }
    top
    {
        type            patch;
        nFaces          2400;
        startFace       772700;
    }
    window
    {
        type            patch;
        nFaces          103;
        startFace       775100;
    }
)

// ************************************************************************* //
