/*--------------------------------*- C++ -*----------------------------------*\
| =========                 |                                                 |
| \\      /  F ield         | OpenFOAM: The Open Source CFD Toolbox           |
|  \\    /   O peration     | Version:  2212                                  |
|   \\  /    A nd           | Website:  www.openfoam.com                      |
|    \\/     M anipulation  |                                                 |
\*---------------------------------------------------------------------------*/
FoamFile
{
    version     2.0;
    format      ascii;
    arch        "LSB;label=32;scalar=64";
    class       extendedFeatureEdgeMesh;
    location    "constant/extendedFeatureEdgeMesh";
    object      building.extendedFeatureEdgeMesh;
}
// * * * * * * * * * * * * * * * * * * * * * * * * * * * * * * * * * * * * * //

// points

93
(
(76.6738 89.72537 5)
(76.6738 89.72537 49.9)
(175.1266 53.15396 49.9)
(175.1266 95.39677 49.9)
(141.1324 79.36447 49.9)
(162.5476 107.976 49.9)
(60.817 53.15396 49.9)
(54.06483 84.92027 49.9)
(107.3011 96.23447 49.9)
(119.4787 85.75287 49.9)
(54.06483 84.92027 5)
(60.817 53.15396 5)
(175.1266 53.15396 5)
(175.1266 95.39677 5)
(162.5476 107.976 5)
(107.3011 96.23447 5)
(119.4787 85.75287 5)
(141.1324 79.36447 5)
(96.37769 83.71647 11)
(96.37769 83.71647 19.98274)
(80.96549 69.53447 5)
(77.8631 84.13037 11)
(77.8631 84.13037 19.98274)
(80.96549 69.53447 49.9)
(76.6738 89.72537 19.98274)
(76.6738 89.72537 11)
(145.8886 69.53447 49.9)
(147.7316 77.60387 49.9)
(142.8858 90.72827 49.9)
(107.3011 96.23447 11)
(107.3011 96.23447 19.98274)
(116.8011 88.05757 11)
(116.8011 88.05757 19.98274)
(142.8858 90.72827 5)
(147.7316 77.60387 5)
(145.8886 69.53447 5)
(92.69279 87.28207 11)
(92.69279 87.28207 19.98274)
(175.1266 74.27536 49.9)
(156.075 53.15396 49.9)
(143.2168 89.17107 49.9)
(137.0234 53.15396 49.9)
(144.1321 104.0621 49.9)
(125.7166 100.1483 49.9)
(124.2476 69.53447 49.9)
(117.9718 53.15396 49.9)
(98.9202 53.15396 49.9)
(102.6065 69.53447 49.9)
(79.8686 53.15396 49.9)
(57.44091 69.03712 49.9)
(131.1823 88.24057 49.9)
(65.36932 87.32282 49.9)
(57.44091 69.03712 5)
(54.06483 84.92027 27.45)
(60.817 53.15396 27.45)
(79.8686 53.15396 5)
(98.9202 53.15396 5)
(117.9718 53.15396 5)
(137.0234 53.15396 5)
(156.075 53.15396 5)
(175.1266 53.15396 27.45)
(175.1266 74.27536 5)
(175.1266 95.39677 27.45)
(162.5476 107.976 27.45)
(144.1321 104.0621 5)
(125.7166 100.1483 5)
(119.4787 85.75287 27.45)
(131.1823 88.24057 5)
(143.2168 89.17107 5)
(141.1324 79.36447 19.96667)
(141.1324 79.36447 34.93333)
(124.2476 69.53447 5)
(102.6065 69.53447 5)
(65.36932 87.32282 5)
(85.27795 85.70622 11)
(91.98744 92.97992 11)
(106.5894 85.88702 11)
(85.27795 85.70622 19.98274)
(91.98744 92.97992 19.98274)
(106.5894 85.88702 19.98274)
(96.37769 83.71647 15.49137)
(80.96549 69.53447 27.45)
(142.8858 90.72827 24.24286)
(142.8858 90.72827 30.65714)
(142.8858 90.72827 11.41429)
(142.8858 90.72827 17.82857)
(142.8858 90.72827 37.07143)
(142.8858 90.72827 43.48571)
(147.7316 77.60387 19.96667)
(147.7316 77.60387 34.93333)
(145.8886 69.53447 19.96667)
(145.8886 69.53447 34.93333)
(92.69279 87.28207 15.49137)
)

// edges

112
(
(20 0)
(24 1)
(1 23)
(0 25)
(2 38)
(38 3)
(39 2)
(4 27)
(27 26)
(40 4)
(41 39)
(3 5)
(5 42)
(42 43)
(28 40)
(26 44)
(45 41)
(46 45)
(44 47)
(47 23)
(48 46)
(49 6)
(6 48)
(7 49)
(50 28)
(9 50)
(1 51)
(51 7)
(43 8)
(8 9)
(10 52)
(53 10)
(7 53)
(54 6)
(11 54)
(52 11)
(11 55)
(56 57)
(55 56)
(58 59)
(12 60)
(59 12)
(60 2)
(57 58)
(12 61)
(62 3)
(13 62)
(61 13)
(13 14)
(14 63)
(63 5)
(14 64)
(64 65)
(15 29)
(65 15)
(30 8)
(15 16)
(66 9)
(16 66)
(16 67)
(67 33)
(33 68)
(68 17)
(69 70)
(70 4)
(17 69)
(17 34)
(34 35)
(35 71)
(72 20)
(71 72)
(73 0)
(10 73)
(36 74)
(25 75)
(74 21)
(18 36)
(76 18)
(31 76)
(75 29)
(77 37)
(78 24)
(22 77)
(37 19)
(19 79)
(79 32)
(30 78)
(80 19)
(18 80)
(81 20)
(21 22)
(23 81)
(22 24)
(25 21)
(31 29)
(30 32)
(32 31)
(82 83)
(33 84)
(84 85)
(85 82)
(83 86)
(87 28)
(86 87)
(34 88)
(89 27)
(88 89)
(35 90)
(91 26)
(90 91)
(92 37)
(36 92)
)

// concaveStart mixedStart nonFeatureStart
20 20 38
// internalStart flatStart openStart multipleStart
89 112 112 112
// normals

172
(
(0.9781477 0.207911 -8.192705e-06)
(0 0 -1)
(0.978146 0.2079194 0)
(-0.2078875 0.9781527 0)
(0.9781477 0.207911 1.643073e-06)
(0 0 1)
(0.978146 0.2079194 -0)
(-0.2078875 0.9781527 0)
(-0 0 1)
(1 0 0)
(0 0 1)
(1 -0 0)
(0 0 1)
(0 -1 0)
(0 0 1)
(-0.2577746 -0.9662051 0)
(0 0 1)
(-0.9748961 0.2226605 0)
(0 0 1)
(-0.9781488 0.207906 0)
(0 0 1)
(-0 -1 -0)
(0 0 1)
(0.7071121 0.7071014 0)
(-0 0 1)
(-0.2078862 0.978153 0)
(0 0 1)
(-0.2078862 0.978153 0)
(0 0 1)
(-0.9781477 -0.2079114 0)
(0 -0 1)
(0 1 -0)
(0 0 1)
(0 -1 0)
(0 0 1)
(-0 -1 0)
(-0 0 1)
(0 1 0)
(0 -0 1)
(0 1 0)
(0 0 1)
(0 -1 0)
(-0 0 1)
(-0.9781474 -0.2079125 0)
(0 -0 1)
(-0 -1 0)
(0 -0 1)
(-0.9781474 -0.2079124 0)
(0 0 1)
(0.2079145 -0.978147 0)
(0 0 1)
(0.2079145 -0.978147 0)
(-0 0 1)
(-0.2078882 0.9781526 0)
(-0 0 1)
(-0.2078861 0.978153 1.485455e-07)
(0 -0 1)
(-0.6523561 -0.7579126 0)
(-0.9781474 -0.2079124 -0)
(0 0 -1)
(-0.2078882 0.9781526 0)
(-0.9781474 -0.2079125 0)
(0 -1 0)
(0 0 -1)
(0 0 -1)
(0 -1 0)
(0 -0 -1)
(0 -1 0)
(0 0 -1)
(0 -1 0)
(0 -0 -1)
(0 -1 0)
(1 0 0)
(0 0 -1)
(0 -1 0)
(0 0 -1)
(0 0 -1)
(0.7071121 0.7071014 0)
(1 0 -0)
(0.7071121 0.7071014 0)
(0 -0 -1)
(0 -0 -1)
(0.7071121 0.7071014 0)
(-0.2078862 0.978153 0)
(0 0 -1)
(-0.2078862 0.978153 0)
(0 0 -1)
(-0.2078861 0.978153 0)
(-0.6523554 -0.7579132 0)
(0 0 -1)
(-0.2078864 0.978153 0)
(-0.6523561 -0.7579126 1.90395e-06)
(0 0 -1)
(-0.6523586 -0.7579105 -0)
(-0.6523586 -0.7579105 0)
(0.2079145 -0.978147 0)
(0 -0 -1)
(0.2079145 -0.978147 0)
(0 -0 -1)
(-0.9781477 -0.2079114 -0)
(0 0 -1)
(-0.9781488 0.207906 0)
(0 0 -1)
(-0.9781488 0.207906 0)
(-0.2577746 -0.9662051 -0)
(-0.9781488 0.207906 0)
(-0.2577746 -0.9662051 -0)
(-0.9781488 0.207906 0)
(-0.2577746 -0.9662051 -0)
(0 0 -1)
(-0.9748961 0.2226605 0)
(-0 0 -1)
(0 1 0)
(0 0 -1)
(0 1 0)
(0 0 -1)
(0 1 -0)
(0 0 -1)
(0 0 -1)
(-0 0 -1)
(0.2078826 -0.9781538 0)
(0 0 -1)
(-0.2078831 0.9781537 0)
(0 0 -1)
(0.2078835 -0.9781536 0)
(-0 0 -1)
(-0.6953778 -0.7186444 0)
(0.2079102 -0.9781479 0)
(0 0 -1)
(0.2079109 -0.9781478 0)
(0 0 -1)
(-0.207883 0.9781537 0)
(0 0 1)
(0.2078826 -0.9781538 0)
(-0 0 1)
(-0.2078831 0.9781537 0)
(0 0 1)
(0.2078835 -0.9781536 0)
(0 0 1)
(-0.6953778 -0.7186444 0)
(0.2079102 -0.9781479 0)
(0 0 1)
(0.2079109 -0.9781478 0)
(0 0 1)
(-0.207883 0.9781537 0)
(-0.6953778 -0.7186444 0)
(0.9781484 0.2079078 0)
(0.9781484 0.2079078 0)
(0.9781484 0.2079078 -0)
(0 -0 -1)
(-0.6523554 -0.7579132 -4.894672e-07)
(0 0 1)
(-0.6523586 -0.7579105 -0)
(0.2079145 -0.978147 0)
(-0.9781477 -0.2079114 -0)
(0.2079145 -0.978147 0)
(-0.9781477 -0.2079114 -0)
(0.2079145 -0.978147 0)
(-0.9781477 -0.2079114 -0)
(0.2079145 -0.978147 0)
(-0.9781477 -0.2079114 -0)
(-0.9781477 -0.2079114 -0)
(0.2079145 -0.978147 0)
(-0.9781477 -0.2079114 -0)
(-0.2577746 -0.9662051 0)
(-0.9748961 0.2226605 0)
(-0.2577746 -0.9662051 0)
(-0.9748961 0.2226605 0)
(-0.9748961 0.2226605 0)
(-0.9748961 0.2226605 0)
(0 1 -0)
(-0.6953778 -0.7186444 0)
)

// normal volume types

172
(
0
0
0
0
0
0
0
0
0
0
0
0
0
0
0
0
0
0
0
0
0
0
0
0
0
0
0
0
0
0
0
0
0
0
0
0
0
0
0
0
0
0
0
0
0
0
0
0
0
0
0
0
0
0
0
0
0
0
0
0
0
0
0
0
0
0
0
0
0
0
0
0
0
0
0
0
0
0
0
0
0
0
0
0
0
0
0
0
0
0
0
0
0
0
0
0
0
0
0
0
0
0
0
0
0
0
0
0
0
0
0
0
0
0
0
0
0
0
0
0
0
0
0
0
0
0
0
0
0
0
0
0
0
0
0
0
0
0
0
0
0
0
0
0
0
0
0
0
0
0
0
0
0
0
0
0
0
0
0
0
0
0
0
0
0
0
0
0
0
0
0
0
)

// normalDirections

112
(
2(1 -1)
2(1 -1)
2(1 -1)
2(1 -1)
2(1 -1)
2(1 -1)
2(1 -1)
2(1 -1)
2(1 -1)
2(1 -1)
2(1 -1)
2(1 -1)
2(1 -1)
2(1 -1)
2(1 -1)
2(1 -1)
2(1 -1)
2(1 -1)
2(1 -1)
2(1 -1)
2(1 -1)
2(1 -1)
2(1 -1)
2(1 -1)
2(1 -1)
2(1 -1)
2(1 -1)
2(1 -1)
2(1 -1)
2(1 -1)
2(1 -1)
2(1 -1)
2(1 -1)
2(1 -1)
2(1 -1)
2(1 -1)
2(1 -1)
2(1 -1)
2(1 -1)
2(1 -1)
2(1 -1)
2(1 -1)
2(1 -1)
2(1 -1)
2(1 -1)
2(1 -1)
2(1 -1)
2(1 -1)
2(1 -1)
2(1 -1)
2(1 -1)
2(1 -1)
2(1 -1)
2(1 -1)
2(1 -1)
2(1 -1)
2(1 -1)
2(1 -1)
2(1 -1)
2(1 -1)
2(1 -1)
2(1 -1)
2(1 -1)
2(1 -1)
2(1 -1)
2(1 -1)
2(1 -1)
2(1 -1)
2(1 -1)
2(1 -1)
2(1 -1)
2(1 -1)
2(1 -1)
2(1 -1)
2(1 -1)
2(1 -1)
2(1 -1)
2(1 -1)
2(1 -1)
2(1 -1)
2(1 -1)
2(1 -1)
2(1 -1)
2(1 -1)
2(1 -1)
2(1 -1)
2(1 -1)
2(1 -1)
2(1 -1)
2(1 -1)
2(1 -1)
2(1 -1)
2(1 -1)
2(1 -1)
2(1 -1)
2(1 -1)
2(1 -1)
2(1 -1)
2(1 -1)
2(1 -1)
2(1 -1)
2(1 -1)
2(1 -1)
2(1 -1)
2(1 -1)
2(1 -1)
2(1 -1)
2(1 -1)
2(1 -1)
2(1 -1)
2(1 -1)
2(1 -1)
)

// edgeNormals

112
(
2(0 1)
2(2 3)
2(4 5)
2(6 7)
2(8 9)
2(10 11)
2(12 13)
2(14 15)
2(16 17)
2(18 19)
2(20 21)
2(22 23)
2(24 25)
2(26 27)
2(28 29)
2(30 31)
2(32 33)
2(34 35)
2(36 37)
2(38 39)
2(40 41)
2(42 43)
2(44 45)
2(46 47)
2(48 49)
2(50 51)
2(5 3)
2(52 53)
2(54 55)
2(56 57)
2(58 59)
2(58 60)
2(47 53)
2(43 45)
2(61 62)
2(61 63)
2(62 64)
2(65 66)
2(67 68)
2(69 70)
2(71 72)
2(71 73)
2(13 9)
2(74 75)
2(72 76)
2(11 77)
2(78 79)
2(78 80)
2(79 81)
2(82 83)
2(23 25)
2(83 84)
2(85 86)
2(87 88)
2(87 89)
2(90 57)
2(91 92)
2(93 51)
2(94 95)
2(95 96)
2(97 98)
2(99 100)
2(101 102)
2(103 104)
2(105 106)
2(107 108)
2(108 109)
2(110 111)
2(112 113)
2(114 115)
2(116 117)
2(1 7)
2(118 60)
2(119 120)
2(121 122)
2(123 124)
2(125 126)
2(125 127)
2(128 129)
2(130 131)
2(132 133)
2(134 135)
2(136 137)
2(138 139)
2(138 140)
2(141 142)
2(143 144)
2(139 140)
2(145 127)
2(146 114)
2(147 124)
2(148 39)
2(2 136)
2(6 123)
2(88 149)
2(150 151)
2(152 142)
2(153 154)
2(97 99)
2(155 156)
2(157 158)
2(159 160)
2(49 161)
2(162 163)
2(164 110)
2(15 165)
2(166 167)
2(168 112)
2(17 31)
2(169 170)
2(133 171)
2(120 126)
)

// featurePointNormals

38
(
3(0 1 7)
3(2 3 5)
3(8 9 13)
3(10 11 23)
3(14 15 19)
3(22 23 25)
3(42 43 45)
3(46 47 53)
3(54 55 57)
3(50 51 57)
3(58 59 60)
3(61 62 63)
3(71 72 73)
3(78 79 80)
3(79 81 83)
3(87 88 89)
3(91 92 95)
3(101 102 108)
3(125 126 127)
3(138 139 140)
3(0 1 114)
3(123 124 147)
3(136 137 147)
3(4 5 39)
3(2 3 134)
3(6 7 121)
3(16 17 31)
3(14 15 17)
3(28 29 49)
3(87 88 130)
3(90 57 143)
3(128 129 88)
3(141 142 150)
3(97 98 99)
3(108 109 110)
3(110 111 112)
3(119 120 126)
3(132 133 139)
)

// featurePointEdges

38
(
3(3 71 0)
3(2 26 1)
3(6 42 4)
3(11 45 5)
3(9 64 7)
3(12 50 11)
3(22 33 21)
3(27 32 23)
3(28 55 29)
3(29 57 25)
3(30 72 31)
3(34 36 35)
3(40 44 41)
3(46 48 47)
3(49 51 48)
3(53 56 54)
3(58 59 56)
3(65 66 62)
3(76 88 77)
3(83 87 84)
3(0 69 89)
3(90 75 93)
3(92 82 90)
3(2 19 91)
3(92 81 1)
3(93 74 3)
3(15 108 8)
3(7 105 8)
3(24 102 14)
3(53 94 79)
3(55 95 86)
3(96 78 94)
3(96 85 95)
3(98 61 60)
3(104 67 66)
3(107 68 67)
3(76 111 73)
3(83 110 80)
)

// regionEdges
0()


// ************************************************************************* //
