/*--------------------------------*- C++ -*----------------------------------*\
| =========                 |                                                 |
| \\      /  F ield         | OpenFOAM: The Open Source CFD Toolbox           |
|  \\    /   O peration     | Version:  2212                                  |
|   \\  /    A nd           | Website:  www.openfoam.com                      |
|    \\/     M anipulation  |                                                 |
\*---------------------------------------------------------------------------*/
FoamFile
{
    version     2.0;
    format      ascii;
    arch        "LSB;label=32;scalar=64";
    class       extendedFeatureEdgeMesh;
    location    "constant/extendedFeatureEdgeMesh";
    object      floor.extendedFeatureEdgeMesh;
}
// * * * * * * * * * * * * * * * * * * * * * * * * * * * * * * * * * * * * * //

// points
10((5.280931e-11 36.14959 2) (108.4828 59.20529 2) (108.4828 59.20529 -1.561525e-07) (5.280931e-11 36.14959 -1.561525e-07) (121.0618 46.62609 2) (121.0618 46.62609 -1.561525e-07) (121.0618 4.383278 2) (121.0618 4.383278 -1.561525e-07) (6.75216 4.383278 2) (6.75216 4.383278 -1.561525e-07))
// edges

15
(
(1 2)
(0 1)
(3 0)
(2 3)
(4 5)
(1 4)
(5 2)
(6 7)
(4 6)
(7 5)
(8 9)
(6 8)
(9 7)
(8 0)
(3 9)
)

// concaveStart mixedStart nonFeatureStart
10 10 10
// internalStart flatStart openStart multipleStart
15 15 15 15
// normals

16
(
(-0.2078856 0.9781531 0)
(0.7071125 0.7071011 0)
(-0 0 1)
(-0.2078856 0.9781531 0)
(-0.9781475 -0.2079123 0)
(0 0 -1)
(0.7071125 0.7071011 0)
(1 0 0)
(0 0 1)
(0 0 -1)
(1 0 0)
(0 -1 -0)
(-0 -1 0)
(-0.9781475 -0.2079123 -0)
(0 0 1)
(0 0 -1)
)

// normal volume types

16
(
0
0
0
0
0
0
0
0
0
0
0
0
0
0
0
0
)

// normalDirections

15
(
2(1 -1)
2(1 -1)
2(1 -1)
2(1 -1)
2(1 -1)
2(1 -1)
2(1 -1)
2(1 -1)
2(1 -1)
2(1 -1)
2(1 -1)
2(1 -1)
2(1 -1)
2(1 -1)
2(1 -1)
)

// edgeNormals

15
(
2(0 1)
2(0 2)
2(3 4)
2(3 5)
2(6 7)
2(6 8)
2(1 9)
2(10 11)
2(10 8)
2(7 9)
2(12 13)
2(12 14)
2(11 15)
2(4 2)
2(13 5)
)

// featurePointNormals

10
(
3(0 2 4)
3(0 1 2)
3(0 1 5)
3(3 4 5)
3(6 7 8)
3(6 7 9)
3(10 11 8)
3(10 11 9)
3(12 13 14)
3(12 13 15)
)

// featurePointEdges

10
(
3(2 13 1)
3(0 5 1)
3(3 6 0)
3(2 14 3)
3(4 8 5)
3(6 9 4)
3(7 11 8)
3(9 12 7)
3(10 13 11)
3(12 14 10)
)

// regionEdges
0()


// ************************************************************************* //
