/*--------------------------------*- C++ -*----------------------------------*\
| =========                 |                                                 |
| \\      /  F ield         | OpenFOAM: The Open Source CFD Toolbox           |
|  \\    /   O peration     | Version:  v1912                                 |
|   \\  /    A nd           | Website:  www.openfoam.com                      |
|    \\/     M anipulation  |                                                 |
\*---------------------------------------------------------------------------*/
FoamFile
{
    version     2.0;
    format      ascii;
    class       volScalarField;
    location    "0/air";
    object      T;
}
// * * * * * * * * * * * * * * * * * * * * * * * * * * * * * * * * * * * * * //

dimensions      [ 0 0 0 1 0 0 0 ];

internalField   uniform 300;

boundaryField
{
    maxY
    {
        type            inletOutlet;
        value           uniform 300;
        inletValue      uniform 300;
    }
    minX
    {
        type            inletOutlet;
        value           uniform 300;
        inletValue      uniform 300;
    }
    maxX
    {
        type            inletOutlet;
        value           uniform 300;
        inletValue      uniform 300;
    }
    minY
    {
        type            inletOutlet;
        value           uniform 300;
        inletValue      uniform 300;
    }
    maxZ
    {
        type            inletOutlet;
        value           uniform 300;
        inletValue      uniform 300;
    }
    air_to_floor
    {
        type            compressible::turbulentTemperatureRadCoupledMixed;
        value           uniform 300;
        Tnbr            T;
        kappaMethod     fluidThermo;
        qrNbr           none;
        qr              qr;
        kappa           none;
    }
    "(air_to_solid|inlet)"
    {
        type            compressible::turbulentTemperatureRadCoupledMixed;//wall：Coupled指流体还是固体
        value           uniform 300;
        Tnbr            T;
        kappaMethod     fluidThermo;
        qrNbr           qr;
        qr              qr;
        kappa           none;
		thicknessLayers (0.2);//list of thicknesses per layer [m]
		kappaLayers     (1.6);//list of thermal conductivites per layer [W/m/K]
		thermalInertia  true;
    }
	   "(glass|outlet)"
    {
        type            compressible::turbulentTemperatureRadCoupledMixed;
        value           uniform 300;
        Tnbr            T;
        kappaMethod     fluidThermo;
        qrNbr           qr;
        qr              qr;
        kappa           none;
		thicknessLayers (0.01);//list of thicknesses per layer [m]
		kappaLayers     (6.4);//list of thermal conductivites per layer [W/m/K]
		thermalInertia  true;
    }
}


// ************************************************************************* //
