/*--------------------------------*- C++ -*----------------------------------*\
| =========                 |                                                 |
| \\      /  F ield         | OpenFOAM: The Open Source CFD Toolbox           |
|  \\    /   O peration     | Version:  2212                                  |
|   \\  /    A nd           | Website:  www.openfoam.com                      |
|    \\/     M anipulation  |                                                 |
\*---------------------------------------------------------------------------*/
FoamFile
{
    version     2.0;
    format      ascii;
    arch        "LSB;label=32;scalar=64";
    class       featureEdgeMesh;
    location    "constant/triSurface";
    object      atrium.eMesh;
}
// * * * * * * * * * * * * * * * * * * * * * * * * * * * * * * * * * * * * * //


// points:

112
(
(107.3011 96.23447 5)
(76.6738 89.72537 5)
(80.96549 69.53447 5)
(142.8858 90.72827 5)
(147.7316 77.60387 5)
(145.8886 69.53447 5)
(142.8858 90.72827 54.253)
(76.6738 89.72537 19.98274)
(107.3011 96.23447 19.98274)
(76.6738 89.72537 54.253)
(80.96549 69.53447 54.253)
(107.3011 96.23447 54.253)
(147.7316 77.60387 54.253)
(145.8886 69.53447 54.253)
(76.6738 89.72537 11)
(107.3011 96.23447 11)
(96.37769 83.71647 19.98274)
(96.37769 83.71647 11)
(119.4787 85.75287 5)
(141.1324 79.36447 5)
(119.4787 85.75287 54.253)
(141.1324 79.36447 54.253)
(92.69279 87.28207 19.98274)
(77.8631 84.13037 19.98274)
(116.8011 88.05756 19.98274)
(116.8011 88.05756 11)
(92.69279 87.28207 11)
(77.8631 84.13037 11)
(142.8858 90.72827 15.49137)
(142.8858 90.72827 11)
(142.8858 90.72827 19.98274)
(87.75456 92.08032 5)
(91.18373 92.8091 5)
(84.06097 91.29533 5)
(80.36739 90.51035 5)
(94.61289 93.5379 5)
(100.957 94.88618 5)
(110.4678 93.50883 5)
(113.6344 90.7832 5)
(102.6065 69.53447 5)
(78.81965 79.62992 5)
(124.2476 69.53447 5)
(116.8011 88.05756 5)
(131.1823 88.24057 5)
(143.2168 89.17107 5)
(142.1746 84.26777 5)
(146.8101 73.56917 5)
(144.432 78.48417 5)
(142.8858 90.72827 8)
(145.8886 69.53447 8)
(145.8886 69.53447 11)
(147.7316 77.60387 8)
(147.7316 77.60387 11)
(147.7316 77.60387 15.49137)
(147.7316 77.60387 19.98274)
(145.8886 69.53447 19.98274)
(145.8886 69.53447 15.49137)
(142.8858 90.72827 25.69445)
(142.8858 90.72827 31.40616)
(142.8858 90.72827 37.11787)
(142.8858 90.72827 42.82958)
(142.8858 90.72827 48.54129)
(143.2168 89.17107 54.253)
(131.1823 88.24057 54.253)
(80.96549 69.53447 11)
(87.75456 92.08032 19.98274)
(94.61289 93.5379 19.98274)
(76.6738 89.72537 37.11787)
(78.81965 79.62992 54.253)
(80.96549 69.53447 19.98274)
(80.96549 69.53447 34.94137)
(80.96549 69.53447 49.9)
(87.75456 92.08032 54.253)
(94.61289 93.5379 54.253)
(107.3011 96.23447 37.11787)
(116.8011 88.05756 54.253)
(147.7316 77.60387 37.11787)
(145.8886 69.53447 37.11787)
(116.8011 88.05756 15.49137)
(92.69279 87.28207 15.49137)
(77.8631 84.13037 15.49137)
(80.96549 69.53447 15.49137)
(76.6738 89.72537 8)
(84.06097 91.29533 11)
(87.75456 92.08032 11)
(80.36739 90.51035 11)
(100.957 94.88618 11)
(94.61289 93.5379 11)
(113.6344 90.7832 11)
(110.4678 93.50883 11)
(91.18373 92.8091 11)
(86.59357 69.53447 54.253)
(92.22166 69.53447 54.253)
(95.03889 69.53447 54.253)
(107.7513 69.53447 54.253)
(120.4637 69.53447 54.253)
(133.1762 69.53447 54.253)
(119.4787 85.75287 15.49137)
(119.4787 85.75287 19.98274)
(119.4787 85.75287 11)
(141.1324 79.36447 11)
(141.1324 79.36447 8)
(141.1324 79.36447 15.49137)
(141.1324 79.36447 19.98274)
(119.4787 85.75287 37.11787)
(141.1324 79.36447 31.40616)
(141.1324 79.36447 42.82958)
(85.27795 85.70622 19.98274)
(106.5894 85.88702 19.98274)
(106.5894 85.88702 11)
(96.37769 83.71647 15.49137)
(85.27795 85.70622 11)
)


// edges:

126
(
(28 29)
(30 28)
(31 32)
(33 31)
(34 33)
(32 35)
(36 0)
(37 38)
(0 37)
(35 36)
(1 34)
(39 2)
(2 40)
(40 1)
(41 39)
(38 42)
(18 43)
(43 3)
(3 44)
(44 45)
(45 19)
(4 46)
(47 4)
(46 5)
(5 41)
(19 47)
(42 18)
(48 3)
(29 48)
(49 5)
(50 49)
(51 52)
(4 51)
(53 52)
(54 53)
(55 56)
(56 50)
(30 57)
(57 58)
(59 60)
(61 6)
(6 62)
(60 61)
(58 59)
(63 6)
(20 63)
(64 2)
(62 21)
(7 65)
(23 7)
(65 66)
(66 8)
(8 24)
(67 7)
(9 67)
(68 9)
(69 70)
(70 71)
(71 10)
(10 68)
(9 72)
(72 73)
(74 8)
(11 74)
(73 11)
(75 20)
(11 75)
(76 54)
(12 76)
(21 12)
(77 55)
(13 77)
(12 13)
(25 78)
(78 24)
(26 79)
(79 22)
(80 23)
(27 80)
(64 81)
(81 69)
(14 82)
(27 14)
(82 1)
(83 84)
(85 83)
(14 85)
(15 0)
(86 15)
(87 86)
(88 25)
(15 89)
(89 88)
(90 84)
(87 90)
(91 92)
(10 91)
(93 94)
(92 93)
(95 96)
(94 95)
(96 13)
(97 98)
(99 97)
(18 99)
(100 101)
(101 19)
(102 100)
(103 102)
(98 104)
(104 20)
(105 103)
(21 106)
(106 105)
(107 23)
(22 107)
(108 16)
(16 22)
(24 108)
(25 109)
(17 110)
(109 17)
(110 16)
(17 26)
(26 111)
(111 27)
)

// * * * * * * * * * * * * * * * * * * * * * * * * * * * * * * * * * * * * * //


// ************************************************************************* //
