/*--------------------------------*- C++ -*----------------------------------*\
| =========                 |                                                 |
| \\      /  F ield         | OpenFOAM: The Open Source CFD Toolbox           |
|  \\    /   O peration     | Version:  2212                                  |
|   \\  /    A nd           | Website:  www.openfoam.com                      |
|    \\/     M anipulation  |                                                 |
\*---------------------------------------------------------------------------*/
FoamFile
{
    version     2.0;
    format      ascii;
    arch        "LSB;label=32;scalar=64";
    class       polyBoundaryMesh;
    location    "constant/domain1/polyMesh";
    object      boundary;
}
// * * * * * * * * * * * * * * * * * * * * * * * * * * * * * * * * * * * * * //


9
(
    inlet
    {
        type            patch;
        nFaces          1899;
        startFace       453165;
    }

    outlet
    {
        type            patch;
        nFaces          1560;
        startFace       455064;
    }

    left
    {
        type            patch;
        nFaces          2679;
        startFace       456624;
    }

    right
    {
        type            patch;
        nFaces          2340;
        startFace       459303;
    }

    top
    {
        type            patch;
        nFaces          2400;
        startFace       461643;
    }

    window
    {
        type            mappedWall;
        nFaces          51;
        startFace       464043;
        inGroups        2 ( wall mappedPatch );
        sampleMode      nearestPatchFace;
        sampleRegion    domain1;
        samplePatch     domain1_to_atrium;
    }

    domain1_to_floor
    {
        type            mappedWall;
        inGroups        2 ( wall mappedPatch );
        nFaces          3348;
        startFace       464094;
        sampleMode      nearestPatchFace;
        sampleRegion    floor;
        samplePatch     floor_to_domain1;
    }

    domain1_to_building
    {
        type            mappedWall;
        inGroups        2 ( wall mappedPatch );
        nFaces          11615;
        startFace       467442;
        sampleMode      nearestPatchFace;
        sampleRegion    building;
        samplePatch     building_to_domain1;
    }

    domain1_to_atrium
    {
        type            mappedWall;
        inGroups        2 ( wall mappedPatch );
        nFaces          2189;
        startFace       479057;
        sampleMode      nearestPatchFace;
        sampleRegion    atrium;
        samplePatch     atrium_to_domain1;
    }

)


// ************************************************************************* //
