/*--------------------------------*- C++ -*----------------------------------*\
| =========                 |                                                 |
| \\      /  F ield         | OpenFOAM: The Open Source CFD Toolbox           |
|  \\    /   O peration     | Version:  2212                                  |
|   \\  /    A nd           | Website:  www.openfoam.com                      |
|    \\/     M anipulation  |                                                 |
\*---------------------------------------------------------------------------*/
FoamFile
{
    version     2.0;
    format      ascii;
    arch        "LSB;label=32;scalar=64";
    class       extendedFeatureEdgeMesh;
    location    "constant/extendedFeatureEdgeMesh";
    object      atrium.extendedFeatureEdgeMesh;
}
// * * * * * * * * * * * * * * * * * * * * * * * * * * * * * * * * * * * * * //

// points

104
(
(107.3011 96.23447 5)
(76.6738 89.72537 5)
(80.96549 69.53447 5)
(142.8858 90.72827 5)
(147.7316 77.60387 5)
(145.8886 69.53447 5)
(142.8858 90.72827 54.253)
(76.6738 89.72537 19.98274)
(107.3011 96.23447 19.98274)
(80.96549 69.53447 54.253)
(145.8886 69.53447 54.253)
(76.6738 89.72537 54.253)
(107.3011 96.23447 54.253)
(147.7316 77.60387 54.253)
(76.6738 89.72537 11)
(107.3011 96.23447 11)
(96.37769 83.71647 19.98274)
(96.37769 83.71647 11)
(119.4787 85.75287 5)
(141.1324 79.36447 5)
(119.4787 85.75287 54.253)
(141.1324 79.36447 54.253)
(92.69279 87.28207 19.98274)
(77.8631 84.13037 19.98274)
(116.8011 88.05756 19.98274)
(116.8011 88.05756 11)
(92.69279 87.28207 11)
(77.8631 84.13037 11)
(142.8858 90.72827 15.49137)
(142.8858 90.72827 11)
(142.8858 90.72827 19.98274)
(87.75456 92.08032 5)
(91.18373 92.8091 5)
(84.06097 91.29533 5)
(80.36739 90.51035 5)
(94.61289 93.5379 5)
(100.957 94.88618 5)
(110.4678 93.50883 5)
(113.6344 90.7832 5)
(102.6065 69.53447 5)
(78.81965 79.62992 5)
(124.2476 69.53447 5)
(116.8011 88.05756 5)
(131.1823 88.24057 5)
(143.2168 89.17107 5)
(142.1746 84.26777 5)
(146.8101 73.56917 5)
(144.432 78.48417 5)
(142.8858 90.72827 8)
(145.8886 69.53447 8)
(145.8886 69.53447 11)
(147.7316 77.60387 8)
(147.7316 77.60387 11)
(147.7316 77.60387 15.49137)
(147.7316 77.60387 19.98274)
(145.8886 69.53447 19.98274)
(145.8886 69.53447 15.49137)
(142.8858 90.72827 25.69445)
(142.8858 90.72827 31.40616)
(142.8858 90.72827 37.11787)
(142.8858 90.72827 42.82958)
(142.8858 90.72827 48.54129)
(143.2168 89.17107 54.253)
(80.96549 69.53447 11)
(87.75456 92.08032 19.98274)
(94.61289 93.5379 19.98274)
(80.96549 69.53447 37.11787)
(80.96549 69.53447 19.98274)
(113.427 69.53447 54.253)
(145.8886 69.53447 37.11787)
(76.6738 89.72537 37.11787)
(87.75456 92.08032 54.253)
(94.61289 93.5379 54.253)
(107.3011 96.23447 37.11787)
(116.8011 88.05756 54.253)
(147.7316 77.60387 37.11787)
(116.8011 88.05756 15.49137)
(92.69279 87.28207 15.49137)
(77.8631 84.13037 15.49137)
(80.96549 69.53447 15.49137)
(76.6738 89.72537 8)
(84.06097 91.29533 11)
(87.75456 92.08032 11)
(80.36739 90.51035 11)
(91.18373 92.8091 11)
(94.61289 93.5379 11)
(100.957 94.88618 11)
(113.6344 90.7832 11)
(110.4678 93.50883 11)
(119.4787 85.75287 15.49137)
(119.4787 85.75287 19.98274)
(119.4787 85.75287 11)
(141.1324 79.36447 11)
(141.1324 79.36447 8)
(141.1324 79.36447 15.49137)
(141.1324 79.36447 19.98274)
(119.4787 85.75287 37.11787)
(141.1324 79.36447 31.40616)
(141.1324 79.36447 42.82958)
(85.27795 85.70622 19.98274)
(106.5894 85.88702 19.98274)
(106.5894 85.88702 11)
(96.37769 83.71647 15.49137)
(85.27795 85.70622 11)
)

// edges

118
(
(28 29)
(30 28)
(31 32)
(33 31)
(34 33)
(32 35)
(36 0)
(37 38)
(0 37)
(35 36)
(1 34)
(39 2)
(2 40)
(40 1)
(41 39)
(38 42)
(18 43)
(43 3)
(3 44)
(44 45)
(45 19)
(4 46)
(47 4)
(46 5)
(5 41)
(19 47)
(42 18)
(48 3)
(29 48)
(49 5)
(50 49)
(51 52)
(4 51)
(53 52)
(54 53)
(55 56)
(56 50)
(30 57)
(57 58)
(59 60)
(61 6)
(6 62)
(60 61)
(58 59)
(20 6)
(63 2)
(62 21)
(7 64)
(23 7)
(64 65)
(65 8)
(8 24)
(66 67)
(9 66)
(68 9)
(55 69)
(69 10)
(10 68)
(70 7)
(11 70)
(9 11)
(11 71)
(71 72)
(73 8)
(12 73)
(72 12)
(74 20)
(12 74)
(75 54)
(13 75)
(21 13)
(13 10)
(25 76)
(76 24)
(26 77)
(77 22)
(78 23)
(27 78)
(63 79)
(79 67)
(14 80)
(27 14)
(80 1)
(81 82)
(83 81)
(14 83)
(84 85)
(82 84)
(15 0)
(86 15)
(85 86)
(87 25)
(15 88)
(88 87)
(89 90)
(91 89)
(18 91)
(92 93)
(93 19)
(94 92)
(95 94)
(90 96)
(96 20)
(97 95)
(21 98)
(98 97)
(99 23)
(22 99)
(100 16)
(16 22)
(24 100)
(25 101)
(17 102)
(101 17)
(102 16)
(17 26)
(26 103)
(103 27)
)

// concaveStart mixedStart nonFeatureStart
16 18 28
// internalStart flatStart openStart multipleStart
94 118 118 118
// normals

197
(
(-0.2079145 0.978147 0)
(0.9781477 0.2079114 0)
(-0.2079145 0.978147 0)
(0.9781477 0.2079114 0)
(0 0 -1)
(-0.2078818 0.978154 0)
(0 0 -1)
(-0.2078843 0.9781534 0)
(0 -0 -1)
(-0.2078824 0.9781538 0)
(0 0 -1)
(-0.2078843 0.9781534 0)
(0 0 -1)
(-0.2078824 0.9781538 0)
(0 0 -1)
(0.6523557 0.7579129 0)
(0 -0 -1)
(0.6523557 0.7579129 0)
(0 0 -1)
(-0.2078835 0.9781536 0)
(0 0 -1)
(-0.2078824 0.9781538 0)
(0 0 -1)
(0 -1 0)
(-0.9781478 -0.2079107 3.348505e-06)
(0 0 -1)
(-0.9781477 -0.2079114 0)
(0 0 -1)
(0 -1 0)
(0 0 -1)
(0.6523568 0.757912 0)
(-0 0 -1)
(-0.2079145 0.978147 0)
(-0 0 -1)
(-0.2079145 0.978147 0)
(0.9781477 0.2079114 0)
(0 0 -1)
(0.9781485 -0.2079074 0)
(0 0 -1)
(0.9781491 -0.2079045 0)
(0 0 -1)
(0.9748957 -0.2226622 0)
(-0 0 -1)
(0.257774 0.9662052 0)
(0 0 -1)
(0.9748965 -0.2226587 0)
(0 0 -1)
(0 -1 -0)
(0 -0 -1)
(0.2577751 0.9662049 -0)
(0 0 -1)
(0.6523563 0.7579125 0)
(0.9781477 0.2079114 0)
(-0.2079145 0.978147 0)
(0.9781477 0.2079114 0)
(0 -1 0)
(0.9748965 -0.2226587 0)
(0 -1 0)
(0.9748957 -0.2226622 0)
(0.257774 0.9662052 -0)
(0.257774 0.9662052 0)
(0.9748957 -0.2226622 0)
(0.257774 0.9662052 -0)
(0.9748957 -0.2226622 0)
(0.9748965 -0.2226587 0)
(-0 -1 -0)
(0.9748965 -0.2226587 0)
(0 -1 -0)
(0.9781477 0.2079114 0)
(-0.2079145 0.978147 0)
(0.9781477 0.2079114 0)
(-0.2079145 0.978147 0)
(0.9781477 0.2079114 0)
(-0.2079145 0.978147 0)
(0.9781477 0.2079114 0)
(-0.2079145 0.978147 0)
(0 0 1)
(0.9781477 0.2079114 0)
(-0.2079145 0.978147 0)
(0.9781477 0.2079114 0)
(-0.2079145 0.978147 0)
(0 -0 1)
(-0.9781487 -0.2079067 0)
(0.9781488 -0.207906 -4.355195e-07)
(0 -0 1)
(0 0 -1)
(-0.207883 0.9781537 0)
(0 0 -1)
(-0.978146 -0.2079194 -0)
(0 0 -1)
(-0.207883 0.9781537 0)
(0 0 -1)
(-0.207883 0.9781537 0)
(0.6523561 0.7579126 -4.551567e-07)
(0 -1 0)
(-0.9781487 -0.2079067 0)
(0 -1 0)
(-0.9781477 -0.207911 0)
(0 0 1)
(0 -1 -0)
(0.9748957 -0.2226622 0)
(-0 -1 -0)
(0.9748957 -0.2226622 0)
(0 0 1)
(-0.207883 0.9781537 0)
(-0.9781477 -0.207911 -0)
(-0.207883 0.9781537 0)
(0 0 1)
(0 0 1)
(-0.207883 0.9781537 0)
(0 0 1)
(0.6523558 0.7579128 -0)
(-0.207883 0.9781537 0)
(0.6523558 0.7579128 0)
(-0.207883 0.9781537 0)
(0 0 1)
(0.6523563 0.7579125 2.207718e-07)
(0 0 1)
(0.6523561 0.7579126 4.551568e-07)
(0 0 1)
(0.2577772 0.9662044 0)
(0.9748957 -0.2226622 0)
(0.2577772 0.9662044 0)
(0.9748957 -0.2226622 0)
(0.2577746 0.9662051 -1.147738e-07)
(0 0 1)
(0.9748961 -0.2226605 -4.340713e-07)
(0 0 1)
(0.6523563 0.7579125 0)
(-0.2079103 0.9781479 0)
(0.6523563 0.7579125 0)
(-0.2079103 0.9781479 0)
(0.6953778 0.7186444 0)
(-0.2078826 0.9781538 0)
(0.6953778 0.7186444 0)
(-0.2078826 0.9781538 0)
(-0.2078835 0.9781536 0)
(-0.9781483 -0.2079082 -0)
(-0.2078835 0.9781536 0)
(-0.9781483 -0.2079082 -0)
(-0.9781487 -0.2079067 -0)
(0 -1 0)
(-0.9781487 -0.2079067 -0)
(0 -1 0)
(-0.978146 -0.2079194 0)
(-0.2078824 0.9781538 0)
(0 0 1)
(-0.2078843 0.9781534 0)
(-0 0 1)
(-0.2078824 0.9781538 0)
(0 0 1)
(0 0 1)
(-0.2078843 0.9781534 0)
(0 0 1)
(-0.2078818 0.978154 0)
(0 0 1)
(-0.2078824 0.9781538 0)
(0 0 1)
(-0.2078835 0.9781536 0)
(0 0 1)
(0.6523568 0.757912 -0)
(0 0 1)
(0.6523557 0.7579129 -0)
(0 0 1)
(0.6523557 0.7579129 0)
(-0 0 1)
(-0.2079145 0.978147 0)
(0.6523563 0.7579125 0)
(-0.2079145 0.978147 0)
(0.6523563 0.7579125 0)
(0.9781491 -0.2079045 0)
(0.2577751 0.9662049 -0)
(0.9781491 -0.2079045 0)
(0.2577751 0.9662049 -0)
(0.9781491 -0.2079045 0)
(0.2577751 0.9662049 -0)
(-0.2079145 0.978147 0)
(0.652357 0.7579118 0)
(-0.2079145 0.978147 0)
(0.652357 0.7579118 0)
(0.9781491 -0.2079045 0)
(0.2577772 0.9662044 0)
(0.9781491 -0.2079045 0)
(0.2577772 0.9662044 0)
(0.9781491 -0.2079045 0)
(0.2577772 0.9662044 0)
(-0 0 -1)
(0 0 -1)
(-0.2079102 0.9781479 0)
(-0 0 -1)
(0 0 1)
(-0.2079102 0.9781479 0)
(0.6953778 0.7186444 0)
(0 0 1)
(0.6953778 0.7186444 0)
(0 0 1)
(0 -0 1)
)

// normal volume types

197
(
0
0
0
0
0
0
0
0
0
0
0
0
0
0
0
0
0
0
0
0
0
0
0
0
0
0
0
0
0
0
0
0
0
0
0
0
0
0
0
0
0
0
0
0
0
0
0
0
0
0
0
0
0
0
0
0
0
0
0
0
0
0
0
0
0
0
0
0
0
0
0
0
0
0
0
0
0
0
0
0
0
0
0
0
0
0
0
0
0
0
0
0
0
0
0
0
0
0
0
0
0
0
0
0
0
0
0
0
0
0
0
0
0
0
0
0
0
0
0
0
0
0
0
0
0
0
0
0
0
0
0
0
0
0
0
0
0
0
0
0
0
0
0
0
0
0
0
0
0
0
0
0
0
0
0
0
0
0
0
0
0
0
0
0
0
0
0
0
0
0
0
0
0
0
0
0
0
0
0
0
0
0
0
0
0
0
0
0
0
0
0
0
0
0
0
0
0
)

// normalDirections

118
(
2(1 -1)
2(1 -1)
2(1 -1)
2(1 -1)
2(1 -1)
2(1 -1)
2(1 -1)
2(1 -1)
2(1 -1)
2(1 -1)
2(1 -1)
2(1 -1)
2(1 -1)
2(1 -1)
2(1 -1)
2(1 -1)
2(1 -1)
2(1 -1)
2(1 -1)
2(1 -1)
2(1 -1)
2(1 -1)
2(1 -1)
2(1 -1)
2(1 -1)
2(1 -1)
2(1 -1)
2(1 -1)
2(1 -1)
2(1 -1)
2(1 -1)
2(1 -1)
2(1 -1)
2(1 -1)
2(1 -1)
2(1 -1)
2(1 -1)
2(1 -1)
2(1 -1)
2(1 -1)
2(1 -1)
2(1 -1)
2(1 -1)
2(1 -1)
2(1 -1)
2(1 -1)
2(1 -1)
2(1 -1)
2(1 -1)
2(1 -1)
2(1 -1)
2(1 -1)
2(1 -1)
2(1 -1)
2(1 -1)
2(1 -1)
2(1 -1)
2(1 -1)
2(1 -1)
2(1 -1)
2(1 -1)
2(1 -1)
2(1 -1)
2(1 -1)
2(1 -1)
2(1 -1)
2(1 -1)
2(1 -1)
2(1 -1)
2(1 -1)
2(1 -1)
2(1 -1)
2(1 -1)
2(1 -1)
2(1 -1)
2(1 -1)
2(1 -1)
2(1 -1)
2(1 -1)
2(1 -1)
2(1 -1)
2(1 -1)
2(1 -1)
2(1 -1)
2(1 -1)
2(1 -1)
2(1 -1)
2(1 -1)
2(1 -1)
2(1 -1)
2(1 -1)
2(1 -1)
2(1 -1)
2(1 -1)
2(1 -1)
2(1 -1)
2(1 -1)
2(1 -1)
2(1 -1)
2(1 -1)
2(1 -1)
2(1 -1)
2(1 -1)
2(1 -1)
2(1 -1)
2(1 -1)
2(1 -1)
2(1 -1)
2(1 -1)
2(1 -1)
2(1 -1)
2(1 -1)
2(1 -1)
2(1 -1)
2(1 -1)
2(1 -1)
2(1 -1)
2(1 -1)
)

// edgeNormals

118
(
2(0 1)
2(2 3)
2(4 5)
2(6 7)
2(8 9)
2(10 11)
2(12 13)
2(14 15)
2(16 17)
2(18 19)
2(20 21)
2(22 23)
2(22 24)
2(25 26)
2(27 28)
2(29 30)
2(31 32)
2(33 34)
2(33 35)
2(36 37)
2(38 39)
2(40 41)
2(42 43)
2(44 45)
2(46 47)
2(48 49)
2(50 51)
2(34 52)
2(53 54)
2(45 55)
2(56 57)
2(58 59)
2(41 43)
2(60 61)
2(62 63)
2(64 65)
2(66 67)
2(68 69)
2(70 71)
2(72 73)
2(74 75)
2(74 76)
2(77 78)
2(79 80)
2(75 81)
2(23 82)
2(83 84)
2(85 86)
2(87 88)
2(89 90)
2(91 92)
2(91 93)
2(94 95)
2(96 97)
2(96 98)
2(99 100)
2(101 102)
2(101 103)
2(88 104)
2(105 106)
2(97 107)
2(106 108)
2(109 110)
2(92 111)
2(112 113)
2(114 115)
2(116 117)
2(118 119)
2(120 121)
2(122 123)
2(124 125)
2(126 127)
2(128 129)
2(130 131)
2(132 133)
2(134 135)
2(136 137)
2(138 139)
2(140 141)
2(142 143)
2(144 145)
2(144 146)
2(26 21)
2(147 148)
2(149 150)
2(145 151)
2(152 153)
2(154 155)
2(156 17)
2(156 157)
2(158 159)
2(160 161)
2(162 163)
2(164 165)
2(166 167)
2(168 169)
2(32 51)
2(170 171)
2(39 49)
2(172 173)
2(174 175)
2(176 177)
2(178 179)
2(180 181)
2(182 183)
2(184 185)
2(87 136)
2(186 135)
2(187 188)
2(187 134)
2(189 131)
2(129 190)
2(191 192)
2(191 193)
2(188 194)
2(192 195)
2(133 196)
2(138 146)
)

// featurePointNormals

28
(
3(12 13 17)
3(20 21 26)
3(22 23 24)
3(33 34 35)
3(40 41 43)
3(44 45 47)
3(74 75 76)
3(85 86 88)
3(91 92 93)
3(96 97 98)
3(101 102 103)
3(105 106 107)
3(112 113 115)
3(122 123 125)
3(144 145 146)
3(156 17 157)
3(187 188 134)
3(191 192 193)
3(31 32 51)
3(38 39 49)
3(75 81 116)
3(83 84 124)
3(134 135 186)
3(87 88 136)
3(91 93 131)
3(128 129 161)
3(132 133 195)
3(138 139 146)
)

// featurePointEdges

28
(
3(8 88 6)
3(13 82 10)
3(11 45 12)
3(17 27 18)
3(22 32 21)
3(24 29 23)
3(40 44 41)
3(48 58 47)
3(50 63 51)
3(53 60 54)
3(56 71 57)
3(60 61 59)
3(65 67 64)
3(70 71 69)
3(80 85 81)
3(88 92 89)
3(108 114 109)
3(112 115 113)
3(16 96 26)
3(25 98 20)
3(44 66 102)
3(46 70 104)
3(107 75 109)
3(48 76 106)
3(110 73 51)
3(72 111 91)
3(74 116 115)
3(77 81 117)
)

// regionEdges
0()


// ************************************************************************* //
