/*--------------------------------*- C++ -*----------------------------------*\
| =========                 |                                                 |
| \\      /  F ield         | OpenFOAM: The Open Source CFD Toolbox           |
|  \\    /   O peration     | Version:  2212                                  |
|   \\  /    A nd           | Website:  www.openfoam.com                      |
|    \\/     M anipulation  |                                                 |
\*---------------------------------------------------------------------------*/
FoamFile
{
    version     2.0;
    format      ascii;
    arch        "LSB;label=32;scalar=64";
    class       extendedFeatureEdgeMesh;
    location    "constant/extendedFeatureEdgeMesh";
    object      window.extendedFeatureEdgeMesh;
}
// * * * * * * * * * * * * * * * * * * * * * * * * * * * * * * * * * * * * * //

// points
8((95.03889 69.53447 49.9) (95.03889 69.53447 54.253) (86.39116 69.53447 54.253) (86.39116 69.53447 49.9) (87.75456 92.08032 11) (94.61289 93.5379 11) (94.61289 93.5379 5) (87.75456 92.08032 5))
// edges
8((0 1) (1 2) (2 3) (3 0) (4 5) (5 6) (6 7) (7 4))
// concaveStart mixedStart nonFeatureStart
0 0 8
// internalStart flatStart openStart multipleStart
0 0 0 8
// normals
4((0 -1 0) (0 -1 0) (-0.207883 0.9781537 0) (-0.207883 0.9781537 0))
// normal volume types

4
(
0
0
0
0
)

// normalDirections

8
(
1(1)
1(1)
1(1)
1(1)
1(1)
1(1)
1(1)
1(1)
)

// edgeNormals

8
(
1(0)
1(0)
1(1)
1(1)
1(2)
1(2)
1(3)
1(3)
)

// featurePointNormals

8
(
1(0)
1(0)
1(0)
1(1)
1(2)
1(2)
1(2)
1(3)
)

// featurePointEdges

8
(
2(0 3)
2(0 1)
2(1 2)
2(2 3)
2(4 7)
2(4 5)
2(5 6)
2(6 7)
)

// regionEdges
8(0 1 2 3 4 5 6 7)


// ************************************************************************* //
