/*--------------------------------*- C++ -*----------------------------------*\
| =========                 |                                                 |
| \\      /  F ield         | OpenFOAM: The Open Source CFD Toolbox           |
|  \\    /   O peration     | Version:  v1912                                 |
|   \\  /    A nd           | Website:  www.openfoam.com                      |
|    \\/     M anipulation  |                                                 |
\*---------------------------------------------------------------------------*/
FoamFile
{
    version     2.0;
    format      ascii;
    class       volScalarField;
    location    "0/building";
    object      G;
}
// * * * * * * * * * * * * * * * * * * * * * * * * * * * * * * * * * * * * * //

dimensions      [1 0 -3 0 0 0 0];

internalField   uniform 0;

boundaryField
{
   ".*"
    {
        type            calculated;
        value           uniform 0;
    }
	/*
	inlet
    {
		type            mappedField;
		sampleMode      nearestPatchFace;
		samplePatch 	inlet;//<neighbourRegion>;
		sampleRegion    air;// <neighbourRegion>;
		//offsetMode 		uniform;
		//offset  		(0 0 0);
		//interpolationScheme  cell;
        field          G;              // optional field name
        setAverage      no;             // apply an average value
        average         0;              // average to apply if setAverage
        value           uniform  0;		// place holder
		//inletValue      uniform  0;
		//Prt             0.85; 
    }
    outlet
    {
		type            mappedField;
		sampleMode      nearestPatchFace;
		samplePatch 	outlet;
		sampleRegion    solid;
		//offsetMode 		uniform;
		//offset  		(0 0 0);
		//interpolationScheme  cell;
        field           G;              // optional field name
        setAverage      no;             // apply an average value
        average         0;              // average to apply if setAverage
        value           uniform  0;		// place holder
		//inletValue      uniform  0;
		//Prt             0.85; 
    }
	*/
}


// ************************************************************************* //
