/*--------------------------------*- C++ -*----------------------------------*\
| =========                 |                                                 |
| \\      /  F ield         | OpenFOAM: The Open Source CFD Toolbox           |
|  \\    /   O peration     | Version:  v1912                                 |
|   \\  /    A nd           | Website:  www.openfoam.com                      |
|    \\/     M anipulation  |                                                 |
\*---------------------------------------------------------------------------*/
FoamFile
{
    version     2.0;
    format      ascii;
    class       volScalarField;
    location    "0/air";
    object      p_rgh;
}
// * * * * * * * * * * * * * * * * * * * * * * * * * * * * * * * * * * * * * //

dimensions      [ 1 -1 -2 0 0 0 0 ];

internalField   uniform 100000;

boundaryField
{
    ".*"
    {
        type            totalPressure;
        p0              $internalField;
    }
	inlet
	   {
       type            zeroGradient;
    }
	window_inlet
	{
       type            zeroGradient;
    }
	window_outlet
	{
        type            totalPressure;
        p0              $internalField;    
	}
	/*
		window_outlet
    {
		type            mappedField;
		sampleMode      nearestPatchFace;
		samplePatch 	window_outlet;
		sampleRegion    atrium;
		//offsetMode 		uniform;
		//offset  		(0 0 0);
		//interpolationScheme  cell;
        field           p_rgh;              // optional field name
        setAverage      no;             // apply an average value
        average         0;              // average to apply if setAverage
        value           $internalField;		// place holder
		//   p0              $internalField;
		//inletValue      uniform  0;
		//Prt             0.85; 
    }
	*/
	glass
    {
        type            fixedFluxPressure;
        p0              $internalField;
    }
	domain1_to_building
    {
        type            fixedFluxPressure;
        p0              $internalField;
    }
    domain1_to_atrium
    {
        type            fixedFluxPressure;
        p0              $internalField;
    }
	    domain1_to_floor
    {
        type            fixedFluxPressure;
        p0              $internalField;
    }

}


// ************************************************************************* //
