/*--------------------------------*- C++ -*----------------------------------*\
| =========                 |                                                 |
| \\      /  F ield         | OpenFOAM: The Open Source CFD Toolbox           |
|  \\    /   O peration     | Version:  v1912                                 |
|   \\  /    A nd           | Website:  www.openfoam.com                      |
|    \\/     M anipulation  |                                                 |
\*---------------------------------------------------------------------------*/
FoamFile
{
    version     2.0;
    format      ascii;
    class       volScalarField;
    location    "0/domain1";
    object      alphat;
}
// * * * * * * * * * * * * * * * * * * * * * * * * * * * * * * * * * * * * * //

dimensions      [1 -1 -1 0 0 0 0];

internalField   uniform 0;

boundaryField
{
     ".*"
    {
        type            calculated;
        value           uniform 0;
    }
	
	
	 domain1_to_building
    {
        type            compressible::alphatWallFunction;
        Prt             0.85;
        value           uniform 0;
    }
	 domain1_to_atrium
    {
        type            compressible::alphatWallFunction;
        Prt             0.85;
        value           uniform 0;
    }
	 domain1_to_floor
    {
        type            compressible::alphatWallFunction;
        Prt             0.85;
        value           uniform 0;
    }
	window
	{
	   type            calculated;
        value           uniform 0;
	}

}


// ************************************************************************* //
