/*--------------------------------*- C++ -*----------------------------------*\
| =========                 |                                                 |
| \\      /  F ield         | OpenFOAM: The Open Source CFD Toolbox           |
|  \\    /   O peration     | Version:  v1912                                 |
|   \\  /    A nd           | Website:  www.openfoam.com                      |
|    \\/     M anipulation  |                                                 |
\*---------------------------------------------------------------------------*/
FoamFile
{
    version     2.0;
    format      ascii;
    class       dictionary;
    object      topoSetDict;
}

// * * * * * * * * * * * * * * * * * * * * * * * * * * * * * * * * * * * * * //

actions
(
//生成face
    {
        name    window;
        type    faceSet;
        action  new;
        source  patchToFace;
        patch   window;
    }
//domain1_to_atrium
	 {
        name    domain1_to_atrium_wall;
        type    faceSet;
        action  new;
        source  patchToFace;
        patch   domain1_to_atrium;
    }
	{
        name    domain1_to_atrium_wall;
        type    faceSet;
        action  subtract;
        source  faceToFace;
		set   window;
    }
    {
        name    domain1_to_atrium;
        type   faceSet;
        action  new;
        source  faceToFace;
		set   domain1_to_atrium_wall;
    }
//	window
	 {
        name    domain1_to_atrium_window;
        type    faceSet;
        action  new;
        source  patchToFace;
        patch   domain1_to_atrium;
    }
		{
        name    domain1_to_atrium_window;
        type    faceSet;
        action  subtract;
        source  faceToFace;
		set   domain1_to_atrium_wall;
    }
	{
        name    window;
        type    faceSet;
        action  new;
        source  faceToFace;
		set   domain1_to_atrium_window;
    }	
);

// ************************************************************************* //
