/*--------------------------------*- C++ -*----------------------------------*\
| =========                 |                                                 |
| \\      /  F ield         | OpenFOAM: The Open Source CFD Toolbox           |
|  \\    /   O peration     | Version:  v1912                                 |
|   \\  /    A nd           | Website:  www.openfoam.com                      |
|    \\/     M anipulation  |                                                 |
\*---------------------------------------------------------------------------*/
FoamFile
{
    version     2.0;
    format      ascii;
    class       volScalarField;
    location    "0/air";
    object      p_rgh;
}
// * * * * * * * * * * * * * * * * * * * * * * * * * * * * * * * * * * * * * //

dimensions      [ 1 -1 -2 0 0 0 0 ];

internalField   uniform 100000;

boundaryField
{
    ".*"
    {
        type            totalPressure;
        p0              $internalField;
    }
	inlet
	   {
       type            zeroGradient;
    }
	glass
    {
        type            fixedFluxPressure;
        p0              $internalField;
    }
	surround
    {
        type            fixedFluxPressure;
        p0              $internalField;
    }
	domain1_to_building
    {
        type            fixedFluxPressure;
        p0              $internalField;
    }
    domain1_to_atrium
    {
        type            fixedFluxPressure;
        p0              $internalField;
    }
	    domain1_to_floor
    {
        type            fixedFluxPressure;
        p0              $internalField;
    }

}


// ************************************************************************* //
